! Blank file in which we can put "overrides" for parameters
!VERBOSITY = 9
EKE_SOURCE='smartredis'
EKE_MODEL='ResNet_4_mse.gpu.pt'
MEKE_COLD_START = True
#override MEKE_GEOMETRIC = True
MEKE_GEOMETRIC_ALPHA = 0.07
#override MEKE_KHTH_FAC = 1.
BATCH_SIZE=10000
MEKE_IN_DYNAMICS=False
USE_SMARTREDIS = True
