! Blank file in which we can put "overrides" for parameters
!VERBOSITY = 9
EKE_SOURCE='smartredis'
EKE_MODEL=';EKE_MODEL;'
EKE_BACKEND=';EKE_BACKEND;'
MEKE_COLD_START = True
SMARTREDIS_COLOCATED = ;SMARTREDIS_COLOCATED;
SMARTREDIS_COLOCATED_STRIDE = ;SMARTREDIS_COLOCATED_STRIDE;
SMARTREDIS_CLUSTER = ;SMARTREDIS_CLUSTER;
#override MEKE_GEOMETRIC = True
MEKE_GEOMETRIC_ALPHA = 0.07
#override MEKE_KHTH_FAC = 1.
BATCH_SIZE=10000
MEKE_IN_DYNAMICS=False
USE_SMARTREDIS = True
